sdk@sdk:~/Desktop/vsd_internship_dac/library/sky130_fd_pr/models$ ngspice custom.spice 10BitDAC/10Bit_DAC_design_1_vref_1.8.spice 
******
** ngspice-31 : Circuit level simulation program
** The U. C. Berkeley CAD Group
** Copyright 1985-1994, Regents of the University of California.
** Please get your ngspice manual from http://ngspice.sourceforge.net/docs.html
** Please file your bug-reports at http://ngspice.sourceforge.net/bugrep.html
** Creation Date: Mon Feb  8 10:35:38 UTC 2021
******

Circuit: * sky130 spice file.

Scale set
Doing analysis at TEMP = 27.000000 and TNOM = 27.000000

Warning: include: has no value, DC 0 assumed

Initial Transient Solution
--------------------------

Node                                   Voltage
----                                   -------
sky130_fd_pr__esd_nfet_05v0_nvt.pm3               0
                                             0
net1                                       3.3
b9                                           0
x1.net1                            1.08198e-08
b8                                         1.8
x1.net2                            8.11486e-09
b7                                         1.8
x1.net3                            5.40991e-09
b6                                         1.8
x1.net4                            2.70495e-09
b5                                         1.8
vdd                                        3.3
net2                               2.50738e-06
net5                                       3.3
x3.net1                                0.66324
x3.net2                                0.66324
x3.net3                                0.66324
nb6                                   0.128903
x3.net4                            1.76157e-09
net6                               2.50738e-06
net7                                       3.3
x4.net1                                1.95544
x4.net2                                 1.6706
x4.net3                                1.63116
x4.net4                               0.289124
nb5                                   0.128903
net8                               2.50738e-06
net9                                       3.3
x5.net1                               0.663242
x5.net2                               0.663242
nb7                                   0.128903
x5.net3                            3.52315e-09
x5.net4                            1.76158e-09
net10                              2.50738e-06
net11                                      3.3
x6.net1                                 1.9285
x6.net2                                1.66696
x6.net3                               0.297538
x6.net4                               0.297538
net12                              2.50738e-06
net13                                      3.3
x7.net1                                1.92849
x7.net2                                1.66696
x7.net3                               0.297537
x7.net4                            9.19467e-10
net14                              2.50738e-06
net15                                      3.3
x8.net1                                2.44711
x8.net2                                1.76552
x8.net3                               0.912648
x8.net4                               0.132473
net16                              2.50738e-06
net17                                      3.3
x9.net1                               0.663242
nb8                                   0.128903
x9.net2                            5.28473e-09
x9.net3                            3.52316e-09
x9.net4                            1.76158e-09
net18                              2.50738e-06
net3                                       3.3
x2.net1                               0.663238
x2.net2                               0.663238
x2.net3                               0.663238
x2.net4                               0.663238
net4                               2.50738e-06
net19                                      3.3
x10.net1                               1.81572
x10.net2                              0.332426
x10.net3                              0.332426
x10.net4                              0.332426
net20                              2.50738e-06
net21                                      3.3
x11.net1                               1.81572
x11.net2                              0.332427
x11.net3                              0.332427
x11.net4                           9.94515e-10
net22                              2.50738e-06
net23                                      3.3
x12.net1                               2.25761
x12.net2                               1.21524
x12.net3                               1.21524
x12.net4                              0.193269
net24                              2.50738e-06
net25                                      3.3
x13.net1                               1.81572
x13.net2                              0.332427
x13.net3                           1.98903e-09
x13.net4                           9.94515e-10
net26                              2.50738e-06
net27                                      3.3
x14.net1                               2.25761
x14.net2                               1.21525
x14.net3                              0.193271
x14.net4                              0.193271
net28                              2.50738e-06
net29                                      3.3
x15.net1                               2.25761
x15.net2                               1.21525
x15.net3                              0.193271
x15.net4                           7.00403e-10
net30                              2.50738e-06
net31                                      3.3
x16.net1                               2.48262
x16.net2                               1.66528
x16.net3                              0.847949
x16.net4                              0.121222
net32                              2.50738e-06
net33                                  3.05778
nb9                                        3.3
x17.net1                               2.02349
x17.net2                              0.557905
x17.net3                               0.32458
x17.net4                              0.149616
net34                              7.46022e-05
net35                                      3.3
x18.net1                               3.09534
x18.net2                               1.66572
x18.net3                               1.58147
x18.net4                               1.55803
net36                              2.50738e-06
net37                                      3.3
x19.net1                               3.09469
x19.net2                               1.66482
x19.net3                               1.58074
x19.net4                           4.53883e-09
net38                              2.50738e-06
net39                                      3.3
x20.net1                                3.1529
x20.net2                               1.84065
x20.net3                               1.65765
x20.net4                              0.295349
net40                              2.50738e-06
net41                                      3.3
x21.net1                               3.09241
x21.net2                               1.66172
x21.net3                           9.67731e-09
x21.net4                           4.83866e-09
net42                              2.50738e-06
net43                                      3.3
x22.net1                               3.14997
x22.net2                               1.80578
x22.net3                              0.330101
x22.net4                              0.330101
net44                              2.50738e-06
net45                                      3.3
x23.net1                               3.14997
x23.net2                               1.80578
x23.net3                              0.330101
x23.net4                           9.89479e-10
net46                              2.50738e-06
net47                                      3.3
x24.net1                               3.16442
x24.net2                               2.16098
x24.net3                               1.15754
x24.net4                              0.180766
net48                              2.50738e-06
net49                                      3.3
x25.net1                               3.05969
x25.net2                           3.65154e-08
x25.net3                           2.43436e-08
x25.net4                           1.21718e-08
net50                              2.50738e-06
net51                                      3.3
x26.net1                               3.13061
x26.net2                               0.62722
x26.net3                               0.62722
x26.net4                               0.62722
net52                              2.50738e-06
net53                                      3.3
x27.net1                               3.13061
x27.net2                              0.627221
x27.net3                              0.627221
x27.net4                           1.67282e-09
net54                              2.50738e-06
net55                                      3.3
x28.net1                               3.15302
x28.net2                               1.79269
x28.net3                               1.65213
x28.net4                              0.294052
net56                              2.50738e-06
net57                                      3.3
x29.net1                               3.13061
x29.net2                              0.627221
x29.net3                           3.34563e-09
x29.net4                           1.67282e-09
net58                              2.50738e-06
net59                                      3.3
x30.net1                               3.15142
x30.net2                               1.73128
x30.net3                               0.31264
x30.net4                               0.31264
net60                              2.50738e-06
net61                                      3.3
x31.net1                               3.15142
x31.net2                               1.73128
x31.net3                               0.31264
x31.net4                           9.51832e-10
net62                              2.50738e-06
net63                                      3.3
x32.net1                               3.16442
x32.net2                               2.16096
x32.net3                               1.15753
x32.net4                              0.180764
net64                              2.50738e-06
pvref                                      3.3
msb1_out                           4.39847e-06
net96                              9.86098e-14
msb2_out                           6.22917e-08
net66                                  3.29969
net97                               9.8411e-14
net67                                   3.2994
net98                              9.80134e-14
net68                                   3.2991
net99                               9.7417e-14
net69                                  3.29881
net100                             9.66218e-14
net70                                  3.29853
net101                             9.56277e-14
net71                                  3.29825
net102                             9.44349e-14
net72                                  3.29798
net103                             9.30432e-14
net73                                  3.29771
net104                             9.14528e-14
net74                                  3.29745
net105                             8.96635e-14
net75                                  3.29719
net106                             8.76754e-14
net76                                  3.29694
net107                             8.54885e-14
net77                                  3.29669
net108                             8.31028e-14
net78                                  3.29645
net109                             8.05183e-14
net79                                  3.29622
net110                              7.7735e-14
net80                                  3.29599
net111                             7.47529e-14
net81                                  3.29576
net112                              7.1572e-14
net82                                  3.29568
net113                             6.81922e-14
net83                                  3.29561
net114                             6.46135e-14
net84                                  3.29554
net115                             6.08361e-14
net85                                  3.29548
net116                             5.68599e-14
net86                                  3.29543
net117                             5.26848e-14
net87                                  3.29538
net118                              4.8311e-14
net88                                  3.29533
net119                             4.37383e-14
net65                                  3.29529
net120                             3.89669e-14
net89                                  3.29525
net121                             3.39966e-14
net90                                  3.29522
net122                             2.88275e-14
net91                                   3.2952
net123                             2.34596e-14
net92                                  3.29518
net124                             1.78929e-14
net93                                  3.29516
net125                             1.21274e-14
net94                                  3.29515
net126                             6.16312e-15
net95                                  3.29515
nvref                                        0
b4                                         1.8
b3                                         1.8
b2                                         1.8
b1                                         1.8
b0                                         1.8
nb4                                   0.128903
nb3                                   0.128903
nb2                                   0.128903
nb1                                   0.128903
nb0                                   0.128903
net150                             4.26296e-06
net149                             4.12746e-06
net148                             3.99195e-06
net147                             3.85645e-06
net146                             3.72094e-06
net145                             3.58543e-06
net144                             3.44993e-06
net143                             3.31442e-06
net142                             3.17892e-06
net141                             3.04341e-06
net140                             2.90791e-06
net139                              2.7724e-06
net138                              2.6369e-06
net137                             2.50139e-06
net136                             2.36589e-06
net135                             2.23038e-06
net134                             2.09487e-06
net133                             1.95937e-06
net132                             1.82386e-06
net131                             1.68836e-06
net130                             1.55285e-06
net129                             1.41735e-06
net128                             1.28184e-06
net127                             1.14634e-06
net151                             1.01083e-06
net152                             8.75325e-07
net153                             7.39819e-07
net154                             6.04314e-07
net155                             4.68808e-07
net156                             3.33303e-07
net157                             1.97797e-07
x97.net1                               3.14643
x97.x2.net1                           0.680727
x97.x2.net2                           0.435079
x97.x2.net3                           0.266011
x97.x2.net4                           0.125082
x97.net2                           2.01878e-05
out                                 3.1865e-15
x98.net1                                   3.3
x98.x2.net1                            1.67444
x98.x2.net2                            1.58298
x98.x2.net3                            1.55902
x98.x2.net4                            1.54455
x98.net2                           2.50738e-06
x99.net1                                   3.3
x99.x2.net1                            1.67387
x99.x2.net2                            1.58253
x99.x2.net3                            1.55858
x99.x2.net4                         4.4585e-09
x99.net2                           2.50738e-06
x100.net1                                  3.3
x100.x2.net1                           1.95804
x100.x2.net2                           1.67087
x100.x2.net3                           1.63125
x100.x2.net4                          0.289146
x100.net2                          2.50738e-06
x101.net1                                  3.3
x101.x2.net1                           1.67294
x101.x2.net2                           1.58179
x101.x2.net3                       9.08524e-09
x101.x2.net4                       4.54262e-09
x101.net2                          2.50738e-06
x102.net1                                  3.3
x102.x2.net1                           1.93324
x102.x2.net2                           1.66745
x102.x2.net3                          0.297651
x102.x2.net4                          0.297651
x102.net2                          2.50738e-06
x103.net1                                  3.3
x103.x2.net1                           1.93323
x103.x2.net2                           1.66744
x103.x2.net3                           0.29765
x103.x2.net4                       9.19708e-10
x103.net2                          2.50738e-06
x104.net1                                  3.3
x104.x2.net1                           2.44711
x104.x2.net2                           1.76552
x104.x2.net3                          0.912648
x104.x2.net4                          0.132473
x104.net2                          2.50738e-06
x105.net1                                  3.3
x105.x2.net1                           1.66955
x105.x2.net2                       1.46045e-08
x105.x2.net3                       9.73634e-09
x105.x2.net4                       4.86817e-09
x105.net2                          2.50738e-06
x106.net1                                  3.3
x106.x2.net1                           1.84581
x106.x2.net2                          0.339462
x106.x2.net3                          0.339462
x106.x2.net4                          0.339462
x106.net2                          2.50738e-06
x107.net1                                  3.3
x107.x2.net1                           1.84582
x107.x2.net2                          0.339464
x107.x2.net3                          0.339464
x107.x2.net4                       1.00977e-09
x107.net2                          2.50738e-06
x108.net1                                  3.3
x108.x2.net1                           2.25762
x108.x2.net2                           1.21525
x108.x2.net3                           1.21525
x108.x2.net4                          0.193273
x108.net2                          2.50738e-06
x109.net1                                  3.3
x109.x2.net1                           1.84581
x109.x2.net2                          0.339462
x109.x2.net3                       2.01954e-09
x109.x2.net4                       1.00977e-09
x109.net2                          2.50738e-06
x110.net1                                  3.3
x110.x2.net1                           2.25763
x110.x2.net2                           1.21527
x110.x2.net3                          0.193276
x110.x2.net4                          0.193276
x110.net2                          2.50738e-06
x111.net1                                  3.3
x111.x2.net1                           2.25761
x111.x2.net2                           1.21525
x111.x2.net3                          0.193272
x111.x2.net4                       7.00404e-10
x111.net2                          2.50738e-06
x112.net1                                  3.3
x112.x2.net1                           2.48262
x112.x2.net2                           1.66527
x112.x2.net3                          0.847938
x112.x2.net4                           0.12122
x112.net2                          2.50738e-06
x113.net1                                  3.3
x113.x2.net1                       5.61703e-08
x113.x2.net2                       4.21277e-08
x113.x2.net3                       2.80851e-08
x113.x2.net4                       1.40426e-08
x113.net2                          2.50738e-06
x114.net1                                  3.3
x114.x2.net1                          0.663239
x114.x2.net2                          0.663239
x114.x2.net3                          0.663239
x114.x2.net4                          0.663239
x114.net2                          2.50738e-06
x115.net1                                  3.3
x115.x2.net1                          0.663242
x115.x2.net2                          0.663242
x115.x2.net3                          0.663242
x115.x2.net4                       1.76158e-09
x115.net2                          2.50738e-06
x116.net1                                  3.3
x116.x2.net1                           1.95545
x116.x2.net2                            1.6706
x116.x2.net3                           1.63116
x116.x2.net4                          0.289125
x116.net2                          2.50738e-06
x117.net1                                  3.3
x117.x2.net1                          0.663245
x117.x2.net2                          0.663245
x117.x2.net3                       3.52317e-09
x117.x2.net4                       1.76158e-09
x117.net2                          2.50738e-06
x118.net1                                  3.3
x118.x2.net1                           1.92849
x118.x2.net2                           1.66696
x118.x2.net3                          0.297537
x118.x2.net4                          0.297537
x118.net2                          2.50738e-06
x119.net1                                  3.3
x119.x2.net1                           1.92847
x119.x2.net2                           1.66696
x119.x2.net3                          0.297537
x119.x2.net4                       9.19465e-10
x119.net2                          2.50738e-06
x120.net1                                  3.3
x120.x2.net1                           2.44711
x120.x2.net2                           1.76552
x120.x2.net3                          0.912649
x120.x2.net4                          0.132473
x120.net2                          2.50738e-06
x121.net1                                  3.3
x121.x2.net1                          0.663243
x121.x2.net2                       5.28474e-09
x121.x2.net3                       3.52316e-09
x121.x2.net4                       1.76158e-09
x121.net2                          2.50738e-06
x122.net1                                  3.3
x122.x2.net1                           1.81573
x122.x2.net2                          0.332427
x122.x2.net3                          0.332427
x122.x2.net4                          0.332427
x122.net2                          2.50738e-06
x123.net1                                  3.3
x123.x2.net1                           1.81573
x123.x2.net2                          0.332429
x123.x2.net3                          0.332429
x123.x2.net4                        9.9452e-10
x123.net2                          2.50738e-06
x124.net1                                  3.3
x124.x2.net1                           2.25762
x124.x2.net2                           1.21526
x124.x2.net3                           1.21526
x124.x2.net4                          0.193273
x124.net2                          2.50738e-06
x125.net1                                  3.3
x125.x2.net1                           1.81574
x125.x2.net2                          0.332431
x125.x2.net3                       1.98905e-09
x125.x2.net4                       9.94523e-10
x125.net2                          2.50738e-06
x126.net1                                  3.3
x126.x2.net1                           2.25761
x126.x2.net2                           1.21525
x126.x2.net3                          0.193272
x126.x2.net4                          0.193272
x126.net2                          2.50738e-06
x127.net1                                  3.3
x127.x2.net1                           2.25761
x127.x2.net2                           1.21525
x127.x2.net3                          0.193272
x127.x2.net4                       7.00404e-10
x127.net2                          2.50738e-06
x128.net1                                  3.3
x128.x2.net1                           2.48262
x128.x2.net2                           1.66528
x128.x2.net3                           0.84795
x128.x2.net4                          0.121222
x128.net2                          2.50738e-06
v1#branch                          -0.00189314
vn#branch                         -6.36193e-18
vp#branch                         -3.10517e-07
v_bit0#branch                                0
v_bit1#branch                                0
v_bit2#branch                                0
v_bit3#branch                                0
v_bit4#branch                                0
v_bit5#branch                                0
v_bit6#branch                                0
v_bit7#branch                                0
v_bit8#branch                                0
v_bit9#branch                                0
